 WAVEWATCH III log file                                 version 7.12      
 =====================================================================
                                                  date : 2021/07/08
                                                  time :  17:12:47

 Model definition file read.
