 WAVEWATCH III log file                                 version 7.12      
 =====================================================================
 multi-grid model driver                          date : 2021/07/08
                                                  time :  17:12:46

  Grid for point output : 
  nr extension  
 ---------------
     points    
 ---------------

  Wave grid information : 
  nr extension  lev.   cur.   wind   ice    tau    rho    data   move1 rnk grp dmp
 ---------------------------------------------------------------------------------
   1 gwes_30m   ---    native native native ---    ---    - - -  no     1   1   -
 ----------------------------------------------------------------------------------

  Group information : 
  nr   grids (part of comm.)
 --------------------------------------------------------------------
   1    1 (0.0000-1.0000)
 --------------------------------------------------------------------

  Resource assignement (processes) : 
  grid           comp.      grd    pnt    trk    rst    bpt    prt
 -------------------------------------------------------------------
  gwes_30m    00001-00080  00079  00078  -----  -----  -----  -----
 -------------------------------------------------------------------
    Unified point output at 00078
 
